0,   100.00,  32, 0, 1, 60.00     / PSS(R)E 32 RAW created by rawd32  MON, JUN 09 2014  21:00
TASMO MODEL; OUTPUT GENERATED 2014-03-13 17:48:45
SWINGBUS 1520 FOR 2012LTOU-1:2020-01-08:0:862--1-0-0-0
     1,'JUDY515S    ',  69.0000,1,  26,  99,  17,1.03082, -29.1360
     2,'MAYERTH     ', 138.0000,1,  40,  99,  17,1.02086, -24.3104
     3,'COLINTO7    ', 138.0000,1,  27,  99,  17,1.01332, -24.8555
     4,'WESTLOC7    ', 138.0000,1,  27,  99,  17,1.01119, -24.7150
     5,'CLYDE  7    ', 138.0000,1,  27,  99,  17,1.01117, -23.9297
     6,'DICKSOA9    ',   4.1600,2,  39,  99,   7,1.03882, -49.7230
     7,'BOYLE  7    ', 138.0000,1,  27,  99,  17,1.02493, -24.7582
     8,'WHI 3647    ', 138.0000,1,  26,  99,  17,1.02769, -25.6376
     9,'WHITECO7    ', 138.0000,1,  26,  99,  17,1.02579, -26.0083
    10,'WHITECO8    ',  69.0000,1,  26,  99,  17,1.04600, -25.8391
    12,'FOX CREE    ', 138.0000,1,  24,  99,  17,1.01411, -27.7370
    13,'KAYBOB 7    ', 138.0000,1,  24,  99,  17,1.00013, -26.9996
    14,'WESGEN 9    ',  13.8000,2,  27,  99,   4,1.02500, -51.4795
    15,'MTN COA7    ', 138.0000,1,  29,  99,  17,1.02188, -24.0125
    16,'FLATBUS7    ', 138.0000,1,  27,  99,  17,1.01032, -24.6033
    17,'COLD CR7    ', 138.0000,1,  29,  99,  17,1.02438, -24.1651
    18,'GULF RO7    ', 138.0000,1,  29,  99,  17,1.01452, -23.0923
    19,'WESGEN T    ', 138.0000,1,  27,  99,  17,1.01546, -24.3576
    20,'EDSON  7    ', 138.0000,1,  29,  99,  17,1.02966, -22.4368
    21,'WESGEN 7    ', 138.0000,1,  27,  99,   4,1.01878, -24.0439
    24,'SAUL_01     ', 240.0000,1,  60,  99,  17,1.02268, -18.8962
    26,'ENTWIST7    ', 138.0000,1,  40,  99,  17,1.01722, -22.3629
    27,'WABAMUN8    ',  69.0000,1,  40,  99,  17,1.02853, -21.7512
    31,'FINCAST7    ', 138.0000,1,  52,  99,  17,1.01620, -12.3475
    32,'ONOWAY 8    ',  69.0000,1,  40,  99,  17,0.97998, -22.8170
    33,'BRAZEAA9    ',  13.2000,2,  30,  99,  17,1.01862, -52.5621
    35,'LODGEPO7    ', 138.0000,1,  30,  99,  17,1.01444, -22.5665
    36,'BRAZEAU7    ', 138.0000,1,  30,  99,  17,1.03011, -20.6885
    37,'HRT EXP7    ', 138.0000,1,  32,  99,  25,1.03286, -16.2777
    38,'BRAZ OUT    ', 138.0000,1,  30,  99,  17,1.02623, -21.8213
    39,'CYNTHIA7    ', 138.0000,1,  30,  99,  17,1.02337, -23.9810
    40,'N CALDE7    ', 138.0000,1,  60,  99,  17,1.02454, -21.9450
    41,'N BARRH7    ', 138.0000,1,  40,  99,  17,1.02366, -24.2549
    42,'AMOCO BR    ', 138.0000,1,  30,  99,  17,1.02613, -23.7565
    43,'SCOT4_7     ', 138.0000,1,  33,  99,  17,1.03364, -20.4927
    44,'FT ASBN7    ', 138.0000,1,  40,  99,  17,1.02536, -26.4293
    45,'ROSS CRK    ', 138.0000,1,  33,  99,  17,1.02754, -20.2845
    47,'SHERWOO7    ', 138.0000,1,  60,  99,  17,1.01554, -22.3233
    48,'DIAM SH7    ', 138.0000,1,  33,  99,  17,1.03521, -20.4934
    49,'KEYSTON7    ', 138.0000,1,  30,  99,  17,1.01862, -18.5885
    50,'RIVERSID    ', 138.0000,1,  33,  99,  17,1.02674, -20.3226
    51,'W PEMBI7    ', 138.0000,1,  30,  99,  17,1.02491, -24.0328
    52,'BLUERIDG    ', 138.0000,1,  26,  99,  17,1.02162, -25.7584
    53,'SANDYPT7    ', 138.0000,1,  48,  99,  17,1.03382, -18.1696
    54,'DOW GEN1    ',  14.4000,2,  33,  34,  17,1.01000, -40.7107
    55,'GULF OI7    ', 138.0000,1,  60,  99,  17,1.02425, -22.3804
    56,'IPPL ED7    ', 138.0000,1,  60,  99,  17,1.02514, -22.3459
    57,'LAMOURE4    ', 240.0000,1,  33,  99,  17,1.01815, -20.0951
    58,'FORT SA7    ', 138.0000,1,  60,  99,  17,1.02532, -20.6571
    59,'REDWATE7    ', 138.0000,1,  33,  99,  17,1.01830, -20.3465
    60,'BEAMER 7    ', 138.0000,1,  33,  99,  17,1.02546, -20.4784
    61,'DOW CHEM    ', 138.0000,1,  33,  99,  17,1.02793, -20.2120
    62,'SHERRIT7    ', 138.0000,1,  33,  99,  17,1.02567, -20.6484
    63,'LAMOURE7    ', 138.0000,1,  33,  99,  17,1.02807, -20.5252
    64,'BANFF  7    ', 138.0000,1,  44,  99,  17,1.01286, -19.8213
    65,'BARDO  7    ', 138.0000,1,  31,  99,  17,1.01411, -21.3082
    66,'IOL 737L    ', 138.0000,1,  60,  99,  17,1.02394, -22.4024
    67,'BRUDERH7    ', 138.0000,1,  33,  99,  17,1.02970, -19.5295
    68,'N HOLDE7    ', 138.0000,1,  56,  99,  17,1.01844, -20.2385
    69,'IOL 738L    ', 138.0000,1,  60,  99,  17,1.01900, -22.7065
    70,'CAMROSE7    ', 138.0000,1,  31,  99,  17,0.99891, -22.1712
    71,'JARROW 8    ',  69.0000,1,  32,  99,  17,1.05389, -16.6847
    72,'JARROW 7    ', 138.0000,1,  32,  99,  17,1.03598, -16.6374
    73,'HARDIST7    ', 138.0000,1,  32,  99,  17,1.03305, -16.2536
    74,'METIS647    ', 138.0000,1,  37,  99,  17,1.03883, -16.7109
    75,'HUGHEND7    ', 138.0000,1,  37,  99,  17,1.03092, -16.7365
    76,'IPPL ST7    ', 138.0000,1,  56,  99,  17,1.03320, -15.5428
    77,'WAINWRI8    ',  69.0000,1,  32,  99,  17,1.05444, -16.8060
    78,'SEDGEWI7    ', 138.0000,1,  32,  99,  17,1.03761, -13.6373
    79,'BUFFALO7    ', 138.0000,1,  32,  99,  17,1.03819, -18.6406
    80,'BUCKLAK7    ', 138.0000,1,  30,  99,  17,1.00743, -21.7308
    81,'BIGSTON4    ', 240.0000,1,  31,  99,  17,1.01701, -18.7588
    82,'CHEVRON7    ', 138.0000,1,  24,  99,  17,0.99976, -27.0137
    83,'RBCUPIL7    ', 138.0000,1,  17,  99,  21,1.08602, -23.2571
    85,'MILLAR 7    ', 138.0000,1,  26,  99,  17,1.00997, -26.2288
    86,'PROVOST7    ', 138.0000,1,  37,  99,  17,1.02715, -17.1680
    88,'BICKERD7    ', 138.0000,1,  29,  99,  17,1.03014, -21.9210
    89,'E EDMON7    ', 138.0000,1,  60,  99,  17,1.02609, -22.2971
    90,'BICKERD4    ', 240.0000,1,  29,  99,  17,1.08144, -20.3089
    91,'NISKU  7    ', 138.0000,1,  60,  99,  17,1.04418, -20.5636
    92,'HS_240      ', 240.0000,1,  60,  99,  17,1.01523, -19.6583
    93,'WETASKI7    ', 138.0000,1,  31,  99,  17,1.02857, -21.2108
    94,'ERVICK 7    ', 138.0000,1,  31,  99,  17,1.00300, -22.0761
    95,'PONOKA 7    ', 138.0000,1,  31,  99,  17,1.01662, -18.9664
    96,'DEVON  7    ', 138.0000,1,  60,  99,  17,1.02772, -21.6248
    97,'ECKVILL7    ', 138.0000,1,  35,  99,  17,1.02818, -17.9676
    98,'RIMBEY 7    ', 138.0000,1,  35,  99,  17,1.01453, -18.5931
    99,'BENALTO7    ', 138.0000,1,  35,  99,  17,1.03803, -17.5307
   100,'ROCKY M7    ', 138.0000,1,  38,  99,  17,1.01231, -18.1279
   101,'COOKING7    ', 138.0000,1,  60,  99,  17,1.01627, -22.8122
   102,'BIGHORN1    ',  13.8000,2,  34,  99,  17,0.97300, -37.9711
   103,'BIG HOR7    ', 138.0000,1,  34,  99,  17,1.03555, -12.0027
   104,'STRACHA7    ', 138.0000,1,  38,  99,  17,1.02128, -17.2089
   105,'PIGEON 7    ', 138.0000,1,  31,  99,  17,1.02584, -21.7016
   106,'DEERLAN7    ', 138.0000,1,  33,  99,  17,1.02372, -18.7882
   107,'SUNDRE 7    ', 138.0000,1,  38,  99,  17,0.99948, -18.3043
   108,'BIGHORN2    ',  13.8000,2,  34,  99,  17,0.97200, -38.0380
   109,'DEERLAN4    ', 240.0000,1,  33,  99,  17,1.03528, -20.1738
   110,'IPL EDM7    ', 138.0000,1,  60,  99,  17,1.02512, -22.3470
   111,'SANDHIL7    ', 138.0000,1,  48,  99,  17,1.03382, -18.1859
   112,'SUNKEN7     ', 138.0000,1,  37,  99,  17,1.03864, -16.7174
   113,'BLACKFA7    ', 138.0000,1,  35,  99,  17,1.01996, -19.3545
   114,'LACOMBE7    ', 138.0000,1,  35,  99,  17,1.01694, -19.4269
   115,'S RED DE    ', 138.0000,1,  35,  99,  17,1.03186, -18.7205
   116,'W LACOMB    ', 138.0000,1,  35,  99,  17,1.01849, -19.3988
   117,'RED DE A    ', 138.0000,1,  35,  99,  17,1.03357, -18.3503
   118,'RED DE B    ', 138.0000,1,  35,  99,  17,1.03357, -18.3503
   119,'N RED D7    ', 138.0000,1,  35,  99,  17,1.03227, -18.8658
   120,'INNISFA7    ', 138.0000,1,  39,  99,  17,1.02283, -18.0456
   121,'OLDS   7    ', 138.0000,1,  39,  99,  17,1.01429, -18.2121
   122,'MADDEN 7    ', 138.0000,1,  39,  99,  17,1.00974, -18.7650
   124,'HARMATT7    ', 138.0000,1,  39,  99,  17,1.01309, -17.3463
   125,'YASAA7      ', 138.0000,1,  60,  99,  17,1.02459, -22.3627
   126,'SHELL H7    ', 138.0000,1,  39,  99,  17,1.02080, -17.5543
   127,'BEDDING2    ', 138.0000,1,   6,  99,   3,1.03679, -18.3178
   128,'ELLERSLI    ', 240.0000,1,  60,  99,  17,1.03013, -18.6003
   129,'SUND#1GN    ',  18.0000,2,  40,  99,  17,1.01534, -45.9263
   130,'SUND#3GN    ',  20.0000,2,  40,  99,  17,0.98400, -35.5025
   131,'SUNDANA8    ',  69.0000,1,  40,  99,  17,1.04108, -17.5482
   132,'SUNDANC7    ', 138.0000,1,  40,  99,  17,1.03291, -15.9155
   133,'WABAMUN4    ', 240.0000,1,  40,  99,  17,1.06798, -17.3997
   134,'WABAMUN7    ', 138.0000,1,  40,  99,  17,1.03365, -19.9013
   135,'SUNDANC4    ', 240.0000,1,  40,  99,  17,1.08235, -15.9263
   136,'E EDMON4    ', 240.0000,1,  60,  99,  17,1.02244, -19.1339
   137,'N CALDE4    ', 240.0000,1,  60,  99,  17,1.02838, -20.4337
   138,'N BARRH4    ', 240.0000,1,  40,  99,  17,1.07427, -22.1169
   141,'DALEHUR7    ', 138.0000,1,  29,  99,  17,1.02322, -23.9314
   142,'KINGMAN7    ', 138.0000,1,  31,  99,  17,1.00369, -21.8208
   144,'ALGAR  7    ', 138.0000,1,  61,  99,   1,1.09458, -27.7165
   147,'GAETZ  4    ', 240.0000,1,  35,  99,  17,1.01527, -16.6129
   148,'GAETZ  7    ', 138.0000,1,  35,  99,  17,1.04015, -18.7760
   150,'WILLESD4    ', 240.0000,1,  30,  99,  17,1.05058, -17.1788
   151,'BRAZ#1 9    ',  13.8000,2,  30,  99,  17,0.98000, -45.1936
   152,'RED DEE4    ', 240.0000,1,  35,  99,  17,1.03133, -16.2286
   153,'BRAZEAU4    ', 240.0000,1,  30,  99,  17,1.04915, -17.3917
   154,'BRAZ#2 9    ',  13.8000,2,  30,  99,  17,0.98000, -45.1507
   155,'BENALTO4    ', 240.0000,1,  35,  99,  17,1.05670, -16.0866
   156,'E CROSS4    ', 240.0000,1,  57,  99,  17,1.03784, -14.9909
   157,'COCHIN 8    ',  69.0000,1,  32,  99, 241,1.05422, -16.8107
   159,'LANGDON4    ', 240.0000,1,   6,  99,  17,1.05400, -15.3065
   160,'JANET  4    ', 240.0000,1,   6,  99,  17,1.04934, -15.4939
   161,'SARCEE 4    ', 240.0000,1,   6,  99,  17,1.05312, -17.8467
   162,'E CALGAR    ', 240.0000,1,   6,  99,  17,1.04291, -17.1061
   163,'SAGITAW4    ', 240.0000,1,  26,  99,  17,1.05439, -23.6662
   164,'SAGITAW7    ', 138.0000,1,  26,  99,  17,1.03144, -25.2524
   165,'PEIGAN 4    ', 240.0000,1,  53,  99, 191,1.02443, -12.6510
   166,'PEIGAN 7    ', 138.0000,1,  53,  99, 191,1.02081, -12.0894
   167,'N LETHB4    ', 240.0000,1,  54,  99,  17,1.03701, -14.3862
   168,'SUNSHIN8    ',  69.0000,1,  44,  99,  17,0.96839, -27.6517
   169,'CAN CEM7    ', 138.0000,1,  44,  99,  80,1.01506, -19.5341
   170,'COCHRAN7    ', 138.0000,1,  44,  99,  17,1.00257, -20.4960
   171,'SEEBE  7    ', 138.0000,1,  44,  99, 191,1.01866, -19.2783
   172,'HORS GEN    ',  12.0000,2,  44,  99,  17,1.02500, -47.7975
   173,'BRETV A7    ', 138.0000,1,  60,  99,  17,1.02401, -22.3880
   174,'SPRAY G1    ',  13.2000,2,  44,  99,  17,1.04663, -46.3060
   175,'CASCADE7    ', 138.0000,1,  44,  99, 194,1.01654, -19.6477
   176,'CASCADE9    ',  13.2000,2,  44,  99, 194,1.04775, -48.0805
   177,'AIRDRIE     ', 138.0000,1,  57,  99,  17,1.01490, -13.3021
   178,'BANFF  8    ',  69.0000,1,  44,  99,  17,0.97543, -27.3147
   179,'MARIANA7    ', 138.0000,1,  61,  99,   1,1.09646, -27.9529
   180,'GHOST  7    ', 138.0000,1,  44,  99,  17,1.01147, -19.6075
   181,'GHOST A9    ',  13.2000,2,  44,  99,  17,1.00000, -47.2707
   183,'BEARSPWB    ',  13.2000,2,  44,  99,  17,1.04637, -49.8836
   184,'BEARSPAW    ', 138.0000,1,  44,  99,  17,1.01326, -20.0407
   185,'SCOT4_8     ', 138.0000,1,  33,  99,   1,1.03334, -20.4180
   187,'BEDDING1    ', 240.0000,1,   6,  99,   3,1.03250, -15.8192
   188,'ANG COCA    ',  25.0000,1,  44,  99,  17,1.04998, -23.3244
   189,'ANG COCB    ',  13.8000,2,  44,  99,  17,1.00559, -54.0604
   190,'SPRAY G2    ',  13.2000,2,  44,  99,  17,1.00000, -46.4795
   191,'ANG COCH    ', 138.0000,1,  44,  99,  17,1.00025, -20.5886
   192,'NELSON L    ', 138.0000,1,  31,  99,  17,1.01281, -19.1153
   193,'KANANAS7    ', 138.0000,1,  44,  99,  17,1.01941, -19.2550
   194,'LAKE LO8    ',  69.0000,1,  44,  99,  17,0.92984, -28.3421
   195,'RUNDLE S    ', 138.0000,1,  44,  99,  17,1.02365, -19.1378
   196,'KANANAS9    ',  12.0000,2,  44,  99,  17,1.04786, -47.4403
   197,'RUNDLE G    ',  13.8000,2,  44,  99,  17,0.99732, -45.6862
   198,'BALZAC 7    ', 138.0000,1,   6,  99,  17,1.03774, -18.2440
   199,'SHELL J7    ', 138.0000,1,  44,  99,  17,1.00919, -19.8630
   200,'UW_01       ', 138.0000,1,  61,  99,  17,1.04370, -32.1318
   201,'JUMPPND7    ', 138.0000,1,  44,  99,  17,1.01423, -19.6220
   202,'SARCEE 7    ', 138.0000,1,   6,  99,  17,1.01938, -19.4494
   203,'SARCEE C    ',  13.8000,1,   6,  99,  17,1.07296, -49.4988
   204,'MCMILLA4    ', 240.0000,1,  61,  99,   1,1.09635, -27.3872
   205,'AMOCO R7    ', 138.0000,1,  38,  99,  17,1.00578, -18.2979
   207,'JANET  7    ', 138.0000,1,   6,  99,  17,1.02496, -18.0786
   208,'ENMX2S 7    ', 138.0000,1,   6,  99,   3,1.02298, -19.1688
   209,'BRETONA1    ', 138.0000,1,  60,  99,  17,1.01919, -22.6271
   210,'SJPC_TP     ', 138.0000,1,  44,  99,  17,1.00942, -19.8530
   211,'MOUNT A7    ', 138.0000,1,  44,  99,  17,1.02246, -19.2135
   213,'HAIGRIVE    ', 138.0000,1,  17,  99,   1,1.08975, -26.1519
   214,'POCATEA9    ',  13.8000,2,  44,  99,  17,1.00065, -46.4047
   215,'TEX.W.P7    ', 138.0000,1,  30,  99,  17,1.02013, -23.7396
   216,'BARRIER7    ', 138.0000,1,  44,  99,  17,1.02086, -19.2193
   217,'SJP_CRK     ', 138.0000,1,  44,  99,  17,1.00938, -19.8549
   218,'BLACKMUD    ', 138.0000,1,  60,  99,  17,1.03420, -21.0332
   219,'KILLARN7    ', 138.0000,1,  37,  99,  17,1.00554, -19.2339
   220,'HAYTER 7    ', 138.0000,1,  37,  99,  17,0.98799, -19.9353
   221,'CRR-W1      ', 240.0000,1,  53,  99,  58,1.01356, -11.1445
   222,'BARRIER9    ',  13.2000,2,  44,  99,  17,1.03000, -46.8421
   223,'PINCHER8    ',  69.0000,1,  53,  99,  17,1.01859, -13.5598
   224,'PINCHER7    ', 138.0000,1,  53,  99,  17,1.03000, -11.7350
   225,'WARE JCT    ', 240.0000,1,  47,  99,  17,1.07633, -12.4525
   226,'DRYWOOD8    ',  69.0000,1,  55,  99,  17,0.95860, -14.7963
   227,'SHELL WA    ',  69.0000,1,  55,  99,  17,0.95861, -15.2995
   228,'YARROW 8    ',  69.0000,1,  55,  99,  17,0.95816, -14.8084
   229,'170AL-TA    ', 138.0000,1,  53,  99,  17,1.03477, -12.2940
   230,'OLDMAN D    ', 138.0000,1,  53,  99,   1,1.01511, -10.0614
   231,'N SHELL8    ',  69.0000,1,  55,  99,  17,0.95663, -15.3884
   232,'COLEMAN7    ', 138.0000,1,  53,  99,  17,1.03420, -13.0674
   233,'DRYWOOD7    ', 138.0000,1,  55,  99,  17,0.82678, -14.7976
   234,'CASTRIV1    ', 138.0000,1,  53,  99,  44,1.03095, -11.6858
   235,'STAVELY7    ', 138.0000,1,  49,  99,  17,1.00468, -16.6165
   237,'FORT MA7    ', 138.0000,1,  53,  99,  17,1.01262, -16.4224
   238,'BLACK D7    ', 138.0000,1,  46,  99,  17,0.99443, -16.4250
   239,'OKOTOKS7    ', 138.0000,1,  46,  99,  17,1.00438, -15.9222
   240,'MAGCAN 7    ', 138.0000,1,  46,  99,  17,1.00551, -15.9193
   242,'HIGH RI7    ', 138.0000,1,  46,  99,  17,1.00654, -15.9133
   243,'HARTELL7    ', 138.0000,1,  46,  99,  17,0.99717, -16.3193
   244,'VULCAN 7    ', 138.0000,1,  49,  99,  17,1.01047, -16.6509
   245,'GLENWOO8    ',  69.0000,1,  55,  99, 191,1.03012, -18.7428
   246,'SPRING 8    ',  69.0000,1,  55,  99,  17,1.02054, -18.8081
   247,'CAVALIER    ', 138.0000,1,  45,  99,  42,1.03980, -13.2902
   248,'MAHKESES    ', 138.0000,1,  28,  99,  36,1.04436, -25.2138
   249,'878S        ', 138.0000,1,  19,  99,   1,1.08020, -36.2331
   250,'DUCHESS7    ', 138.0000,1,  47,  99,  17,1.02296, -15.6497
   251,'GARDN1      ', 138.0000,1,  55,  99,  10,1.01212, -16.9453
   252,'CARSELA7    ', 138.0000,1,  45,  99,  17,1.01184, -14.2766
   253,'BLACKIE7    ', 138.0000,1,  45,  99,  17,1.01537, -14.8994
   254,'GLEICHE7    ', 138.0000,1,  45,  99, 191,1.02585, -14.3823
   255,'CHINOOK9    ',  34.5000,2,  53,  99,  17,0.97330,  -6.1908
   256,'BROOKS 7    ', 138.0000,1,  47,  99,  17,1.03167, -15.2614
   257,'LIMESTO7    ', 138.0000,1,  38,  99,  17,0.99966, -18.6299
   258,'ELLERSLI    ', 500.0000,1,  60,  99,  17,1.04246, -15.1094
   259,'STRATHM7    ', 138.0000,1,  45,  99,  17,1.02504, -15.4500
   260,'JENNER 4    ', 240.0000,1,  48,  99,  17,1.07842, -15.0664
   261,'DOW BUS3    ', 138.0000,1,  33,  99, 191,1.02815, -20.1648
   262,'DOME EM4    ', 240.0000,1,  48,  99,  17,1.08186, -17.1078
   263,'EMP LIQ7    ', 138.0000,1,  48,  99,  17,1.03135, -18.1590
   264,'COWLEY 8    ',  69.0000,1,  53,  99,  17,1.01829,  -8.1719
   265,'US WIND9    ',  34.5000,2,  53,  99,  17,0.97316,  -6.4853
   266,'EMPRESA7    ', 138.0000,1,  48,  99,  17,1.03383, -18.1794
   267,'DOME EM7    ', 138.0000,1,  48,  99,  17,1.03400, -18.1612
   268,'DOME EA9    ',  13.8000,2,  48,  99,  17,1.03806, -18.9288
   269,'BURDETT7    ', 138.0000,1,  52,  99,  17,1.01801, -12.8927
   270,'SUFFIEL7    ', 138.0000,1,   4,  99,  17,1.03750, -15.0902
   271,'BULLS H7    ', 138.0000,1,   4,  99,  17,1.02973,  -9.0871
   272,'TABER  7    ', 138.0000,1,  52,  99,  17,1.01899, -18.5121
   273,'HRTLAND     ', 500.0000,1,  33,  99,  99,1.04320, -16.3076
   274,'VAUXHAL7    ', 138.0000,1,  52,  99,  17,1.01293, -17.9051
   275,'TILLEY 7    ', 138.0000,1,  47,  99,  17,1.04506, -14.2784
   276,'W BROOK7    ', 138.0000,1,  47,  99,  17,1.03626, -14.7956
   277,'WESTFLD7    ', 138.0000,1,  52,  99,  17,1.02573, -12.9828
   278,'WARNER 8    ',  69.0000,1,  55,  99,  17,0.99428, -19.1937
   279,'STAVELEY    ', 138.0000,1,  49,  99,  17,1.00840, -16.6094
   280,'STIRLIN8    ',  69.0000,1,  55,  99,  17,1.03887, -19.0066
   282,'HEARTLAK    ', 240.0000,1,  27,  99,   1,1.07350, -27.5479
   283,'CANMORE7    ', 138.0000,1,  44,  99,  17,1.01836, -19.3958
   284,'BUTTE7      ', 138.0000,1,   4,  99,  17,1.02565,  -9.2637
   285,'BAYMAG      ', 138.0000,1,  44,  99,  17,1.01603, -19.4884
   286,'ENCHANT7    ', 138.0000,1,  52,  99,  17,1.01239, -17.2610
   287,'DOME EB9    ',  13.8000,2,  48,  99,  17,1.03414, -19.8766
   288,'DOME EC9    ',  13.8000,2,  48,  99,  17,1.04071, -18.3015
   289,'DOME EM9    ',  13.8000,2,  48,  99,  17,1.03885, -18.7992
   290,'BALZ COG    ', 138.0000,1,   6,  99,  42,1.04022, -18.0444
   291,'CONRAD 7    ', 138.0000,1,  52,  99,  17,1.01015, -12.5978
   292,'JENNER7     ', 138.0000,1,  48,  99,  17,1.01157, -19.8948
   293,'STIRLIN7    ', 138.0000,1,  55,  99,  17,1.01024, -17.5063
   294,'TOTHILL1    ', 138.0000,1,   4,  99, 281,1.02638,  -9.2318
   295,'DRYCREEK    ', 138.0000,1,  57,  99,  17,1.03426, -18.4301
   296,'GOOSEL7     ', 138.0000,1,  53,  99,  17,1.03029, -11.7268
   297,'WAINWRI7    ', 138.0000,1,  32,  99,  17,1.02151, -17.1141
   298,'ALB NEWS    ', 240.0000,1,  26,  99,  17,1.04046, -24.1023
   299,'SUND866S    ',  69.0000,1,  40,  99,  17,1.03148, -17.8551
   300,'KEEP320P    ',  69.0000,1,  40,  99,  17,1.03616, -17.7280
   301,'KEEPHIL8    ',  69.0000,1,  40,  99,  17,1.03148, -17.8554
   302,'MARION 7    ', 138.0000,1,  40,  99,  17,1.03138, -15.9168
   303,'STELCO 1    ', 138.0000,1,  60,  99,  17,1.02688, -22.3713
   304,'PLAMOND7    ', 138.0000,1,  27,  99,  17,1.03692, -25.3319
   305,'LAC LA 7    ', 138.0000,1,  27,  99,  17,1.01886, -26.9398
   306,'WINEFRE7    ', 138.0000,1,  27,  99,  17,1.04192, -31.3341
   308,'FLATLK-2    ', 138.0000,1,  27,  99,  17,1.04462, -23.9967
   309,'MCMILLA7    ', 138.0000,1,  61,  99,   1,1.08445, -27.5153
   310,'SPRAY  S    ', 138.0000,1,  44,  99,  17,1.02482, -19.0370
   311,'LEDUC1      ', 138.0000,1,  60,  99,  17,1.02708, -22.2278
   312,'E CROSS7    ', 138.0000,1,  57,  99,  17,1.01750, -14.0124
   313,'JOSEPH1     ', 240.0000,1,  33,  99,  17,1.01574, -20.1056
   314,'JOSEPH2     ', 138.0000,1,  33,  99,  17,1.03657, -20.4696
   315,'HUSSAR      ', 138.0000,1,  45,  99,  17,1.02748, -14.2962
   316,'LAURATP     ',  69.0000,1,  26,  99,  17,1.02144, -28.0822
   317,'CARSONA8    ',  69.0000,1,  26,  99,  17,1.02131, -28.0879
   318,'W CROSSF    ', 138.0000,1,  57,  99,  17,1.01360, -13.0339
   319,'COALSPU8    ',  69.0000,1,  29,  99,  17,1.02728, -23.2708
   320,'CHAPPIC7    ', 138.0000,1,   4,  99,  17,1.03308, -16.8950
   321,'HEARTLAK    ', 138.0000,1,  27,  99,   1,1.02003, -27.4086
   322,'CARSON 8    ',  69.0000,1,  26,  99,  17,1.03009, -27.8234
   323,'CADOMIN8    ',  69.0000,1,  29,  99,  17,1.02628, -23.3175
   324,'COALSPU7    ', 138.0000,1,  29,  99,  17,1.01261, -23.2274
   325,'PEGAS.L8    ',  69.0000,1,  26,  99,  17,1.02060, -28.0020
   326,'COAL VA7    ', 138.0000,1,  29,  99,  17,1.00773, -23.4674
   328,'MACLEOD1    ', 138.0000,1,  53,  99,  19,0.98678, -10.0157
   329,'POCATER7    ', 138.0000,1,  44,  99,  17,1.02638, -17.7900
   330,'P C BRA7    ', 138.0000,1,  30,  99,  17,1.02434, -24.4730
   331,'VIOL GR7    ', 138.0000,1,  30,  99,  17,1.00831, -22.1377
   332,'DVPL IA9    ',  13.8000,2,  30,  99,   4,1.04763, -50.7011
   333,'QUENSTWN    ', 138.0000,1,  45,  99,  17,1.02372, -16.0048
   334,'SUMMER04    ', 138.0000,1,  53,  99,  17,1.01511, -10.0614
   336,'SUMMER01    ', 138.0000,1,  53,  99,  19,1.01560,  -9.7718
   337,'ESSO JU8    ',  69.0000,1,  26,  99,  17,1.03019, -28.9287
   338,'SUND#2GN    ',  18.0000,2,  40,  99,  17,1.01534, -45.9263
   340,'NAMAKA 7    ', 138.0000,1,  45,  99,  17,1.03666, -13.8202
   341,'HEARTLAN    ', 240.0000,1,  33,  99,  99,1.03823, -18.7924
   342,'SUND#4GN    ',  20.0000,2,  40,  99,  17,0.98700, -36.7333
   343,'TABERW1     ', 138.0000,1,  52,  99, 421,1.01634, -12.2337
   344,'WARLOW7     ', 138.0000,1,  48,  99,  17,1.01021, -19.9908
   345,'SUND#5GN    ',  20.0000,2,  40,  99,  17,0.99500, -37.1590
   346,'GOOSEL4     ', 240.0000,1,  53,  99,  17,1.01853, -11.5889
   347,'LUNDBRE8    ',  69.0000,1,  53,  99,  17,1.01875,  -8.2135
   348,'LEISMER4    ', 240.0000,1,  61,  99,  17,1.02489, -32.3231
   350,'SUND#6GN    ',  20.0000,2,  40,  99,  17,1.00000, -36.4269
   353,'SUND204S    ',  69.0000,1,  40,  99,  17,1.04051, -17.5556
   354,'NOVA C17    ', 138.0000,1,  35,  99,  17,1.02305, -18.6949
   355,'NOVA C27    ', 138.0000,1,  35,  99,  17,1.02283, -18.6523
   357,'STALBE7     ', 138.0000,1,  60,  99,  17,1.01900, -22.0880
   358,'SODER1      ', 138.0000,1,  53,  99, 231,0.98666, -10.3268
   359,'ACHESON     ', 138.0000,1,  60,  99,  17,1.02954, -21.4883
   360,'STONY P7    ', 138.0000,1,  40,  99,  17,1.02784, -21.3532
   361,'EDGERTO8    ',  69.0000,4,  37,  99,  17,1.00000,   0.0000
   362,'EDGERTO7    ', 138.0000,1,  37,  99,  17,1.04904, -18.2602
   363,'NW CARD7    ', 138.0000,1,  60,  99,  17,1.01528, -22.9223
   364,'CARVEL01    ', 138.0000,1,  40,  99,  17,1.02507, -21.0410
   365,'BUFORD 7    ', 138.0000,1,  31,  99,  17,1.02355, -22.2024
   366,'VISCOUNT    ', 138.0000,1,  60,  99,  17,1.02119, -22.2253
   367,'CHINOOK1    ', 138.0000,1,  54,  99,  11,1.01876, -16.6886
   368,'CHEVIOT1    ', 138.0000,1,  29,  99,  17,1.00697, -23.5489
   369,'CHRISLK1    ', 240.0000,1,  61,  99,  17,1.02555, -31.9114
   370,'SHELL C7    ', 138.0000,1,  38,  99,  17,1.00552, -18.2033
   372,'WAB27398    ',  69.0000,1,  40,  99,  17,1.02817, -21.7610
   373,'IPL HAR7    ', 138.0000,1,  32,  99,  17,1.03246, -16.2786
   374,'BIGSTON7    ', 138.0000,1,  31,  99,  17,1.03591, -20.8280
   375,'POCATER9    ',  25.0000,1,  44,  99,  17,1.00188, -45.6746
   376,'INTERLB9    ',  25.0000,1,  44,  99,  17,1.01041, -44.5361
   377,'INTERLA9    ',   4.1600,2,  44,  99,  17,1.03085, -72.4219
   378,'STELCO 2    ', 138.0000,1,  60,  99,  17,1.02690, -22.3727
   379,'THREE A9    ',  25.0000,1,  44,  99,  17,1.04701, -16.8729
   380,'RUNDLE 9    ',  25.0000,1,  44,  99,  17,1.05553, -17.7862
   381,'THREE S9    ',   6.9000,2,  44,  99,  17,1.07896, -16.1127
   382,'SHELL RA    ', 138.0000,1,  38,  99,  17,1.00567, -18.2002
   383,'JOFFRE 7    ', 138.0000,1,  35,  99,  17,1.02314, -18.7438
   384,'UC PRENT    ', 138.0000,1,  35,  99,  17,1.01794, -19.3128
   385,'SHELL SC    ', 138.0000,1,  38,  99,  17,1.01000, -18.1403
   386,'SHELL EA    ', 138.0000,1,  38,  99,  17,0.99925, -18.3132
   387,'COMINCO7    ', 138.0000,1,  35,  99,  17,1.02107, -18.9102
   388,'ELLIS  7    ', 138.0000,1,  35,  99,  17,1.01783, -19.3032
   389,'HILLRIDG    ', 138.0000,1,  54,  99,  10,1.01954, -17.1002
   391,'ALBCHEM7    ', 138.0000,1,  33,  99,  17,1.03045, -19.6420
   392,'ALPAC1      ', 138.0000,1,  27,  99, 301,1.07936, -20.6046
   393,'DOW HYD7    ', 138.0000,1,  33,  99,  17,1.02691, -20.4445
   394,'ASTOTIN     ', 138.0000,1,  33,  99,  17,1.02968, -19.5305
   395,'NITON  7    ', 138.0000,1,  29,  99,  17,1.01214, -22.9793
   397,'PINEDAL7    ', 138.0000,1,  29,  99,  17,1.01556, -22.9104
   398,'BROOKFLD    ', 138.0000,1,  35,  99,  17,1.02202, -18.7874
   399,'BASSAN7     ', 138.0000,1,  47,  99,  17,1.02390, -15.5621
   400,'MONARCH7    ', 138.0000,1,  54,  99,  17,1.01531, -16.7898
   401,'HAYS   7    ', 138.0000,1,  52,  99,  17,1.01707, -17.9924
   402,'KETTLES1    ', 138.0000,1,  53,  99, 192,1.02749, -11.5511
   403,'KEEP#3GN    ',  22.0000,2,  40,  99,  17,1.03500, -34.4760
   405,'CONKLIN1    ', 240.0000,1,  61,  99, 251,1.04102, -30.1559
   406,'CHIN CH7    ', 138.0000,1,  54,  99,  17,1.01398, -17.4299
   407,'CHIN CH9    ',  13.8000,2,  54,  99,  17,1.01398, -47.4299
   408,'WHITEGE9    ',  12.5000,2,  26,  99,  17,1.02671, -51.9692
   409,'KETTLES     ', 138.0000,1,  53,  99,  17,1.02750, -11.5528
   410,'WHITEGE8    ',  69.0000,1,  26,  99,  17,1.04733, -25.7434
   411,'CHEV KG7    ', 138.0000,1,  24,  99,  17,0.99973, -27.0163
   412,'BENBOW 7    ', 138.0000,1,  24,  99,  17,1.00023, -26.9896
   414,'RAY RES9    ',  13.8000,2,  55,  99,  17,1.02000, -46.9534
   415,'MARLBOR1    ', 138.0000,1,  29,  99,  17,1.01961, -23.2867
   417,'WAUP1       ', 138.0000,1,  27,  99,  17,1.04148, -24.3671
   420,'KEEPHIL4    ', 240.0000,1,  40,  99,  17,1.05621, -10.9325
   421,'KEEPHIL5    ', 240.0000,1,  40,  99,  17,1.05714, -11.6123
   422,'KEEP#1GN    ',  19.0000,2,  40,  99,  17,1.00000, -31.1961
   423,'KEEPHIL7    ', 138.0000,1,  40,  99,  17,1.03428, -15.6073
   424,'KEEP#2GN    ',  19.0000,2,  40,  99,  17,1.00000, -31.0799
   425,'NOSE CR7    ', 138.0000,1,  57,  99,  17,1.01420, -12.3597
   428,'SG_B1       ', 138.0000,1,  60,  99, 321,1.02436, -21.7714
   429,'SUND BL8    ',  69.0000,1,  40,  99,  17,1.04087, -17.5584
   430,'W BROOK4    ', 240.0000,1,  47,  99,  17,1.06977, -13.4284
   431,'KEEP_3      ', 138.0000,1,  40,  99,  17,1.03411, -15.6151
   433,'QL138       ', 138.0000,1,  31,  99,  17,1.00369, -21.8208
   434,'189_240     ', 240.0000,1,  61,  99,  17,1.03824, -30.9419
   435,'1134L_TP    ', 240.0000,1,  61,  99,  17,1.04013, -30.2619
   436,'BERN138     ', 138.0000,1,  60,  99,  17,1.02609, -22.2971
   437,'TMPL2GA7    ', 138.0000,1,  40,  99,  17,1.02420, -21.2478
   438,'CAN LIQ7    ', 138.0000,1,  60,  99,  17,1.01961, -22.4748
   440,'TRUE WEL    ', 138.0000,1,  31,  99,  17,1.02717, -21.2616
   443,'BANN_240    ', 240.0000,1,  33,  99,  17,1.02064, -20.0614
   444,'SPRINGB7    ', 138.0000,1,  44,  99,  17,1.01322, -19.7156
   445,'CUTNG L7    ', 138.0000,1,  47,  99,  17,1.02617, -15.5080
   446,'VICTR A     ',  13.8000,1,  33,  99,  17,0.97004, -54.8800
   447,'BELLYIA9    ',   4.1600,2,  55,  99,   8,1.03547, -19.8792
   448,'MARY IA9    ',   4.1600,2,  55,  99,   8,1.00046, -20.3854
   449,'WATERIA9    ',   4.1600,2,  55,  99,   8,1.03993, -13.9493
   450,'IRRICAN1    ',   4.1600,2,  55,  99,  17,1.01448, -51.1041
   451,'MATLB1      ', 240.0000,1,  55,  99, 381,1.05341, -14.1659
   454,'DOW GEN2    ',  14.4000,2,  33,  34,  17,1.01000, -41.6809
   455,'BAND7       ', 138.0000,4,  55,  99,  17,1.00000,   0.0000
   456,'BENNETTP    ', 500.0000,1,   6,  99,  17,1.06038, -13.8084
   458,'CHAPR1      ', 500.0000,1,  53,  99,  99,1.08671,  -9.9809
   459,'ROSEVAL1    ', 138.0000,1,  40,  99,  17,1.03353, -15.6723
   462,'WR2WF1      ', 240.0000,1,   4,  99,  17,1.04862, -12.5859
   464,'W CASCAD    ',  25.0000,4,  44,  99, 194,1.00000,   0.0000
   465,'TL138       ', 138.0000,1,  35,  99,  15,1.03920, -18.8299
   468,'LEISMER7    ', 138.0000,1,  61,  99,  17,1.03865, -32.7248
   474,'RAY RES7    ', 138.0000,1,  55,  99,  17,1.01224, -17.2544
   477,'ELKWATR1    ', 240.0000,1,   4,  99,  99,1.04859, -12.5857
   478,'BANFF  9    ',  25.0000,1,  44,  99,  17,1.04481, -25.8587
   479,'RUNDLE H    ',  13.8000,2,  44,  99,  17,1.04761, -47.7472
   480,'BENNETTS    ', 240.0000,1,   6,  99,  17,1.05409, -15.2912
   481,'            ', 138.0000,1,  27,  99,  17,1.04805, -24.9043
   482,'            ', 240.0000,1,  27,  99,  17,1.05885, -24.8165
   483,'TUCUMAN7    ', 138.0000,1,  32,  99,  17,1.03475, -16.2065
   484,'CLIPPER7    ', 138.0000,1,  32,  99,  41,1.03245, -16.2789
   485,'HVDC_P1     ', 240.0000,1,   6,  99,  17,1.05400, -15.3065
   488,'CHERHIL1    ', 240.0000,1,  40,  99,  17,1.07644, -19.4340
   490,'GENES 39    ',  22.0000,2,  40,  99,   5,1.01100, -34.3342
   491,'GENES 19    ',  20.5000,2,  40,  99,   5,1.00700, -34.5994
   492,'GENES 29    ',  20.5000,2,  40,  99,   5,1.01000, -34.6081
   497,'ROSS 8      ',  14.4000,1,  60,  99,   5,1.03326, -52.5141
   498,'ROSS 9      ',  14.4000,1,  60,  99,   5,1.03326, -52.5141
   499,'ROSS 109    ',  14.4000,1,  60,  99,   5,1.03326, -52.5141
   500,'KEEPHIL1    ', 138.0000,1,  40,  99,  17,1.03428, -15.6073
   501,'ENMXBON     ', 138.0000,1,   6,  99,   3,1.02271, -19.1345
   502,'HARDIST8    ',  69.0000,4,  60,  99,   5,1.00000,   0.0000
   503,'SUMMIT_7    ', 138.0000,1,  57,  99,   3,1.01448, -12.3237
   505,'JASPER 4    ', 240.0000,1,  60,  99,   5,1.03135, -19.7899
   506,'BELLAMY4    ', 240.0000,1,  60,  99,   5,1.02444, -19.2783
   507,'ROSSDALE    ',  69.0000,1,  60,  99,   5,1.07819, -22.5141
   508,'HIGHFEED    ',  14.4000,1,  60,  99,   5,0.99021, -52.5141
   509,'ARGYLL W    ', 240.0000,1,  60,  99,   5,1.02479, -19.2365
   510,'KEEPHIL3    ', 500.0000,1,  40,  99,  17,1.05832, -12.3100
   511,'SUMMERS1    ', 240.0000,1,  60,  99,   5,1.03001, -18.6123
   512,'DOME   4    ', 240.0000,1,  60,  99,   5,1.03096, -18.5256
   513,'LAMBTON4    ', 240.0000,1,  60,  99,   5,1.02411, -19.1595
   514,'CLOVERB4    ', 240.0000,1,  60,  99,   5,1.02374, -18.7994
   515,'BROADMO7    ', 138.0000,1,  60,  99,  17,1.02038, -22.4180